<?xml version="1.0" encoding="UTF-8"?>

<!-- generated on 2024-01-03 12:37:57 by Eclipse SUMO netedit Version v1_16_0+1996-f1d78d0b3d8
-->

<additional xmlns:xsi="http://www.w3.org/2001/XMLSchema-instance" xsi:noNamespaceSchemaLocation="http://sumo.dlr.de/xsd/additional_file.xsd">

	<!-- <route id="route_cali_E_NS5" edges="v1 v2 v3" color="red"/> -->

	<!-- Calibrators -->
	<calibrator id="cali_mainstream" vTypes="myVehDist" edge="v1" pos="0.00" jamThreshold="0.5">
	
		<flow begin="0" end="60" route="routedist_mainstream_flow" vehsPerHour="1800" speed="33.3" type="myVehDist" departPos="random_free" departSpeed="max"/>
		<flow begin="60" end="120" route="routedist_mainstream_flow" vehsPerHour="1800" speed="33.3" type="myVehDist" departPos="random_free" departSpeed="max"/>
		<flow begin="120" end="180" route="routedist_mainstream_flow" vehsPerHour="1800" speed="33.3" type="myVehDist" departPos="random_free" departSpeed="max"/>
		<flow begin="180" end="240" route="routedist_mainstream_flow" vehsPerHour="1800" speed="33.3" type="myVehDist" departPos="random_free" departSpeed="max"/>
		<flow begin="240" end="300" route="routedist_mainstream_flow" vehsPerHour="1800" speed="33.3" type="myVehDist" departPos="random_free" departSpeed="max"/>
		<flow begin="300" end="360" route="routedist_mainstream_flow" vehsPerHour="1800" speed="33.3" type="myVehDist" departPos="random_free" departSpeed="max"/>
		<flow begin="360" end="420" route="routedist_mainstream_flow" vehsPerHour="1800" speed="33.3" type="myVehDist" departPos="random_free" departSpeed="max"/>
		<flow begin="420" end="480" route="routedist_mainstream_flow" vehsPerHour="1800" speed="33.3" type="myVehDist" departPos="random_free" departSpeed="max"/>
		<flow begin="480" end="540" route="routedist_mainstream_flow" vehsPerHour="1800" speed="33.3" type="myVehDist" departPos="random_free" departSpeed="max"/>
		<flow begin="540" end="600" route="routedist_mainstream_flow" vehsPerHour="1800" speed="33.3" type="myVehDist" departPos="random_free" departSpeed="max"/>
		<flow begin="600" end="660" route="routedist_mainstream_flow" vehsPerHour="1800" speed="33.3" type="myVehDist" departPos="random_free" departSpeed="max"/>
		<flow begin="660" end="720" route="routedist_mainstream_flow" vehsPerHour="1800" speed="33.3" type="myVehDist" departPos="random_free" departSpeed="max"/>
		<flow begin="720" end="780" route="routedist_mainstream_flow" vehsPerHour="1800" speed="33.3" type="myVehDist" departPos="random_free" departSpeed="max"/>
		<flow begin="780" end="840" route="routedist_mainstream_flow" vehsPerHour="1800" speed="33.3" type="myVehDist" departPos="random_free" departSpeed="max"/>
		<flow begin="840" end="900" route="routedist_mainstream_flow" vehsPerHour="1800" speed="33.3" type="myVehDist" departPos="random_free" departSpeed="max"/>
		<flow begin="900" end="960" route="routedist_mainstream_flow" vehsPerHour="1800" speed="33.3" type="myVehDist" departPos="random_free" departSpeed="max"/>
		<flow begin="960" end="1020" route="routedist_mainstream_flow" vehsPerHour="1800" speed="33.3" type="myVehDist" departPos="random_free" departSpeed="max"/>
		<flow begin="1020" end="1080" route="routedist_mainstream_flow" vehsPerHour="1800" speed="33.3" type="myVehDist" departPos="random_free" departSpeed="max"/>
		<flow begin="1080" end="1140" route="routedist_mainstream_flow" vehsPerHour="1800" speed="33.3" type="myVehDist" departPos="random_free" departSpeed="max"/>
		<flow begin="1140" end="1200" route="routedist_mainstream_flow" vehsPerHour="1800" speed="33.3" type="myVehDist" departPos="random_free" departSpeed="max"/>
		<flow begin="1200" end="1260" route="routedist_mainstream_flow" vehsPerHour="1800" speed="33.3" type="myVehDist" departPos="random_free" departSpeed="max"/>
		<flow begin="1260" end="1320" route="routedist_mainstream_flow" vehsPerHour="1800" speed="33.3" type="myVehDist" departPos="random_free" departSpeed="max"/>
		<flow begin="1320" end="1380" route="routedist_mainstream_flow" vehsPerHour="1800" speed="33.3" type="myVehDist" departPos="random_free" departSpeed="max"/>
		<flow begin="1380" end="1440" route="routedist_mainstream_flow" vehsPerHour="1800" speed="33.3" type="myVehDist" departPos="random_free" departSpeed="max"/>
		<flow begin="1440" end="1500" route="routedist_mainstream_flow" vehsPerHour="1800" speed="33.3" type="myVehDist" departPos="random_free" departSpeed="max"/>
		<flow begin="1500" end="1560" route="routedist_mainstream_flow" vehsPerHour="1800" speed="33.3" type="myVehDist" departPos="random_free" departSpeed="max"/>
		<flow begin="1560" end="1620" route="routedist_mainstream_flow" vehsPerHour="1800" speed="33.3" type="myVehDist" departPos="random_free" departSpeed="max"/>
		<flow begin="1620" end="1680" route="routedist_mainstream_flow" vehsPerHour="1800" speed="33.3" type="myVehDist" departPos="random_free" departSpeed="max"/>
		<flow begin="1680" end="1740" route="routedist_mainstream_flow" vehsPerHour="1800" speed="33.3" type="myVehDist" departPos="random_free" departSpeed="max"/>
		<flow begin="1740" end="1800" route="routedist_mainstream_flow" vehsPerHour="1800" speed="33.3" type="myVehDist" departPos="random_free" departSpeed="max"/>
		<flow begin="1800" end="1860" route="routedist_mainstream_flow" vehsPerHour="1800" speed="33.3" type="myVehDist" departPos="random_free" departSpeed="max"/>
		<flow begin="1860" end="1920" route="routedist_mainstream_flow" vehsPerHour="1800" speed="33.3" type="myVehDist" departPos="random_free" departSpeed="max"/>
		<flow begin="1920" end="1980" route="routedist_mainstream_flow" vehsPerHour="1800" speed="33.3" type="myVehDist" departPos="random_free" departSpeed="max"/>
		<flow begin="1980" end="2040" route="routedist_mainstream_flow" vehsPerHour="1800" speed="33.3" type="myVehDist" departPos="random_free" departSpeed="max"/>
		<flow begin="2040" end="2100" route="routedist_mainstream_flow" vehsPerHour="1800" speed="33.3" type="myVehDist" departPos="random_free" departSpeed="max"/>
		<flow begin="2100" end="2160" route="routedist_mainstream_flow" vehsPerHour="1800" speed="33.3" type="myVehDist" departPos="random_free" departSpeed="max"/>
		<flow begin="2160" end="2220" route="routedist_mainstream_flow" vehsPerHour="1800" speed="33.3" type="myVehDist" departPos="random_free" departSpeed="max"/>
		<flow begin="2220" end="2280" route="routedist_mainstream_flow" vehsPerHour="1800" speed="33.3" type="myVehDist" departPos="random_free" departSpeed="max"/>
		<flow begin="2280" end="2340" route="routedist_mainstream_flow" vehsPerHour="1800" speed="33.3" type="myVehDist" departPos="random_free" departSpeed="max"/>
		<flow begin="2340" end="2400" route="routedist_mainstream_flow" vehsPerHour="1800" speed="33.3" type="myVehDist" departPos="random_free" departSpeed="max"/>
		<flow begin="2400" end="2460" route="routedist_mainstream_flow" vehsPerHour="1800" speed="33.3" type="myVehDist" departPos="random_free" departSpeed="max"/>
		<flow begin="2460" end="2520" route="routedist_mainstream_flow" vehsPerHour="1800" speed="33.3" type="myVehDist" departPos="random_free" departSpeed="max"/>
		<flow begin="2520" end="2580" route="routedist_mainstream_flow" vehsPerHour="1800" speed="33.3" type="myVehDist" departPos="random_free" departSpeed="max"/>
		<flow begin="2580" end="2640" route="routedist_mainstream_flow" vehsPerHour="1800" speed="33.3" type="myVehDist" departPos="random_free" departSpeed="max"/>
		<flow begin="2640" end="2700" route="routedist_mainstream_flow" vehsPerHour="1800" speed="33.3" type="myVehDist" departPos="random_free" departSpeed="max"/>
		<flow begin="2700" end="2760" route="routedist_mainstream_flow" vehsPerHour="1800" speed="33.3" type="myVehDist" departPos="random_free" departSpeed="max"/>
		<flow begin="2760" end="2820" route="routedist_mainstream_flow" vehsPerHour="1800" speed="33.3" type="myVehDist" departPos="random_free" departSpeed="max"/>
		<flow begin="2820" end="2880" route="routedist_mainstream_flow" vehsPerHour="1800" speed="33.3" type="myVehDist" departPos="random_free" departSpeed="max"/>
		<flow begin="2880" end="2940" route="routedist_mainstream_flow" vehsPerHour="1800" speed="33.3" type="myVehDist" departPos="random_free" departSpeed="max"/>
		<flow begin="2940" end="3000" route="routedist_mainstream_flow" vehsPerHour="1800" speed="33.3" type="myVehDist" departPos="random_free" departSpeed="max"/>
		<flow begin="3000" end="3060" route="routedist_mainstream_flow" vehsPerHour="1800" speed="33.3" type="myVehDist" departPos="random_free" departSpeed="max"/>
		<flow begin="3060" end="3120" route="routedist_mainstream_flow" vehsPerHour="1800" speed="33.3" type="myVehDist" departPos="random_free" departSpeed="max"/>
		<flow begin="3120" end="3180" route="routedist_mainstream_flow" vehsPerHour="1800" speed="33.3" type="myVehDist" departPos="random_free" departSpeed="max"/>
		<flow begin="3180" end="3240" route="routedist_mainstream_flow" vehsPerHour="1800" speed="33.3" type="myVehDist" departPos="random_free" departSpeed="max"/>
		<flow begin="3240" end="3300" route="routedist_mainstream_flow" vehsPerHour="1800" speed="33.3" type="myVehDist" departPos="random_free" departSpeed="max"/>
		<flow begin="3300" end="3360" route="routedist_mainstream_flow" vehsPerHour="1800" speed="33.3" type="myVehDist" departPos="random_free" departSpeed="max"/>
		<flow begin="3360" end="3420" route="routedist_mainstream_flow" vehsPerHour="1800" speed="33.3" type="myVehDist" departPos="random_free" departSpeed="max"/>
		<flow begin="3420" end="3480" route="routedist_mainstream_flow" vehsPerHour="1800" speed="33.3" type="myVehDist" departPos="random_free" departSpeed="max"/>
		<flow begin="3480" end="3540" route="routedist_mainstream_flow" vehsPerHour="1800" speed="33.3" type="myVehDist" departPos="random_free" departSpeed="max"/>
		<flow begin="3540" end="3600" route="routedist_mainstream_flow" vehsPerHour="1800" speed="33.3" type="myVehDist" departPos="random_free" departSpeed="max"/>
		<flow begin="3600" end="3660" route="routedist_mainstream_flow" vehsPerHour="1800" speed="33.3" type="myVehDist" departPos="random_free" departSpeed="max"/>
		<flow begin="3660" end="3720" route="routedist_mainstream_flow" vehsPerHour="1800" speed="33.3" type="myVehDist" departPos="random_free" departSpeed="max"/>
		<flow begin="3720" end="3780" route="routedist_mainstream_flow" vehsPerHour="1800" speed="33.3" type="myVehDist" departPos="random_free" departSpeed="max"/>
		<flow begin="3780" end="3840" route="routedist_mainstream_flow" vehsPerHour="1800" speed="33.3" type="myVehDist" departPos="random_free" departSpeed="max"/>
		<flow begin="3840" end="3900" route="routedist_mainstream_flow" vehsPerHour="1800" speed="33.3" type="myVehDist" departPos="random_free" departSpeed="max"/>
		<flow begin="3900" end="3960" route="routedist_mainstream_flow" vehsPerHour="1800" speed="33.3" type="myVehDist" departPos="random_free" departSpeed="max"/>
		<flow begin="3960" end="4020" route="routedist_mainstream_flow" vehsPerHour="1800" speed="33.3" type="myVehDist" departPos="random_free" departSpeed="max"/>
		<flow begin="4020" end="4080" route="routedist_mainstream_flow" vehsPerHour="1800" speed="33.3" type="myVehDist" departPos="random_free" departSpeed="max"/>
		<flow begin="4080" end="4140" route="routedist_mainstream_flow" vehsPerHour="1800" speed="33.3" type="myVehDist" departPos="random_free" departSpeed="max"/>
		<flow begin="4140" end="4200" route="routedist_mainstream_flow" vehsPerHour="1800" speed="33.3" type="myVehDist" departPos="random_free" departSpeed="max"/>
		<flow begin="4200" end="4260" route="routedist_mainstream_flow" vehsPerHour="1800" speed="33.3" type="myVehDist" departPos="random_free" departSpeed="max"/>
		<flow begin="4260" end="4320" route="routedist_mainstream_flow" vehsPerHour="1800" speed="33.3" type="myVehDist" departPos="random_free" departSpeed="max"/>
		<flow begin="4320" end="4380" route="routedist_mainstream_flow" vehsPerHour="1800" speed="33.3" type="myVehDist" departPos="random_free" departSpeed="max"/>
		<flow begin="4380" end="4440" route="routedist_mainstream_flow" vehsPerHour="1800" speed="33.3" type="myVehDist" departPos="random_free" departSpeed="max"/>
		<flow begin="4440" end="4500" route="routedist_mainstream_flow" vehsPerHour="1800" speed="33.3" type="myVehDist" departPos="random_free" departSpeed="max"/>
		<flow begin="4500" end="4560" route="routedist_mainstream_flow" vehsPerHour="1800" speed="33.3" type="myVehDist" departPos="random_free" departSpeed="max"/>
		<flow begin="4560" end="4620" route="routedist_mainstream_flow" vehsPerHour="1800" speed="33.3" type="myVehDist" departPos="random_free" departSpeed="max"/>
		<flow begin="4620" end="4680" route="routedist_mainstream_flow" vehsPerHour="1800" speed="33.3" type="myVehDist" departPos="random_free" departSpeed="max"/>
		<flow begin="4680" end="4740" route="routedist_mainstream_flow" vehsPerHour="1800" speed="33.3" type="myVehDist" departPos="random_free" departSpeed="max"/>
		<flow begin="4740" end="4800" route="routedist_mainstream_flow" vehsPerHour="1800" speed="33.3" type="myVehDist" departPos="random_free" departSpeed="max"/>
		<flow begin="4800" end="4860" route="routedist_mainstream_flow" vehsPerHour="1800" speed="33.3" type="myVehDist" departPos="random_free" departSpeed="max"/>
		<flow begin="4860" end="4920" route="routedist_mainstream_flow" vehsPerHour="1800" speed="33.3" type="myVehDist" departPos="random_free" departSpeed="max"/>
		<flow begin="4920" end="4980" route="routedist_mainstream_flow" vehsPerHour="1800" speed="33.3" type="myVehDist" departPos="random_free" departSpeed="max"/>
		<flow begin="4980" end="5040" route="routedist_mainstream_flow" vehsPerHour="1800" speed="33.3" type="myVehDist" departPos="random_free" departSpeed="max"/>
		<flow begin="5040" end="5100" route="routedist_mainstream_flow" vehsPerHour="1800" speed="33.3" type="myVehDist" departPos="random_free" departSpeed="max"/>
		<flow begin="5100" end="5160" route="routedist_mainstream_flow" vehsPerHour="1800" speed="33.3" type="myVehDist" departPos="random_free" departSpeed="max"/>
		<flow begin="5160" end="5220" route="routedist_mainstream_flow" vehsPerHour="1800" speed="33.3" type="myVehDist" departPos="random_free" departSpeed="max"/>
		<flow begin="5220" end="5280" route="routedist_mainstream_flow" vehsPerHour="1800" speed="33.3" type="myVehDist" departPos="random_free" departSpeed="max"/>
		<flow begin="5280" end="5340" route="routedist_mainstream_flow" vehsPerHour="1800" speed="33.3" type="myVehDist" departPos="random_free" departSpeed="max"/>
		<flow begin="5340" end="5400" route="routedist_mainstream_flow" vehsPerHour="1800" speed="33.3" type="myVehDist" departPos="random_free" departSpeed="max"/>

	</calibrator>
	
	
	
    <!-- <calibrator id="ca_routedist_mainstream_flow" edge="v1" pos="0.00"/> -->
    
	<calibrator id="cali_onramp1" vTypes="myVehDist" edge="16to4" pos="0.00" jamThreshold="0.5">
	
		<flow begin="0" end="60" route="routedist_onramp1_flow" vehsPerHour="1800" speed="22.2" type="myVehDist" departPos="random_free" departSpeed="max"/>
		<flow begin="60" end="120" route="routedist_onramp1_flow" vehsPerHour="1800" speed="22.2" type="myVehDist" departPos="random_free" departSpeed="max"/>
		<flow begin="120" end="180" route="routedist_onramp1_flow" vehsPerHour="1800" speed="22.2" type="myVehDist" departPos="random_free" departSpeed="max"/>
		<flow begin="180" end="240" route="routedist_onramp1_flow" vehsPerHour="1800" speed="22.2" type="myVehDist" departPos="random_free" departSpeed="max"/>
		<flow begin="240" end="300" route="routedist_onramp1_flow" vehsPerHour="1800" speed="22.2" type="myVehDist" departPos="random_free" departSpeed="max"/>
		<flow begin="300" end="360" route="routedist_onramp1_flow" vehsPerHour="1800" speed="22.2" type="myVehDist" departPos="random_free" departSpeed="max"/>
		<flow begin="360" end="420" route="routedist_onramp1_flow" vehsPerHour="1800" speed="22.2" type="myVehDist" departPos="random_free" departSpeed="max"/>
		<flow begin="420" end="480" route="routedist_onramp1_flow" vehsPerHour="1800" speed="22.2" type="myVehDist" departPos="random_free" departSpeed="max"/>
		<flow begin="480" end="540" route="routedist_onramp1_flow" vehsPerHour="1800" speed="22.2" type="myVehDist" departPos="random_free" departSpeed="max"/>
		<flow begin="540" end="600" route="routedist_onramp1_flow" vehsPerHour="1800" speed="22.2" type="myVehDist" departPos="random_free" departSpeed="max"/>
		<flow begin="600" end="660" route="routedist_onramp1_flow" vehsPerHour="1800" speed="22.2" type="myVehDist" departPos="random_free" departSpeed="max"/>
		<flow begin="660" end="720" route="routedist_onramp1_flow" vehsPerHour="1800" speed="22.2" type="myVehDist" departPos="random_free" departSpeed="max"/>
		<flow begin="720" end="780" route="routedist_onramp1_flow" vehsPerHour="1800" speed="22.2" type="myVehDist" departPos="random_free" departSpeed="max"/>
		<flow begin="780" end="840" route="routedist_onramp1_flow" vehsPerHour="1800" speed="22.2" type="myVehDist" departPos="random_free" departSpeed="max"/>
		<flow begin="840" end="900" route="routedist_onramp1_flow" vehsPerHour="1800" speed="22.2" type="myVehDist" departPos="random_free" departSpeed="max"/>
		<flow begin="900" end="960" route="routedist_onramp1_flow" vehsPerHour="1800" speed="22.2" type="myVehDist" departPos="random_free" departSpeed="max"/>
		<flow begin="960" end="1020" route="routedist_onramp1_flow" vehsPerHour="1800" speed="22.2" type="myVehDist" departPos="random_free" departSpeed="max"/>
		<flow begin="1020" end="1080" route="routedist_onramp1_flow" vehsPerHour="1800" speed="22.2" type="myVehDist" departPos="random_free" departSpeed="max"/>
		<flow begin="1080" end="1140" route="routedist_onramp1_flow" vehsPerHour="1800" speed="22.2" type="myVehDist" departPos="random_free" departSpeed="max"/>
		<flow begin="1140" end="1200" route="routedist_onramp1_flow" vehsPerHour="1800" speed="22.2" type="myVehDist" departPos="random_free" departSpeed="max"/>
		<flow begin="1200" end="1260" route="routedist_onramp1_flow" vehsPerHour="1800" speed="22.2" type="myVehDist" departPos="random_free" departSpeed="max"/>
		<flow begin="1260" end="1320" route="routedist_onramp1_flow" vehsPerHour="1800" speed="22.2" type="myVehDist" departPos="random_free" departSpeed="max"/>
		<flow begin="1320" end="1380" route="routedist_onramp1_flow" vehsPerHour="1800" speed="22.2" type="myVehDist" departPos="random_free" departSpeed="max"/>
		<flow begin="1380" end="1440" route="routedist_onramp1_flow" vehsPerHour="1800" speed="22.2" type="myVehDist" departPos="random_free" departSpeed="max"/>
		<flow begin="1440" end="1500" route="routedist_onramp1_flow" vehsPerHour="1800" speed="22.2" type="myVehDist" departPos="random_free" departSpeed="max"/>
		<flow begin="1500" end="1560" route="routedist_onramp1_flow" vehsPerHour="1800" speed="22.2" type="myVehDist" departPos="random_free" departSpeed="max"/>
		<flow begin="1560" end="1620" route="routedist_onramp1_flow" vehsPerHour="1800" speed="22.2" type="myVehDist" departPos="random_free" departSpeed="max"/>
		<flow begin="1620" end="1680" route="routedist_onramp1_flow" vehsPerHour="1800" speed="22.2" type="myVehDist" departPos="random_free" departSpeed="max"/>
		<flow begin="1680" end="1740" route="routedist_onramp1_flow" vehsPerHour="1800" speed="22.2" type="myVehDist" departPos="random_free" departSpeed="max"/>
		<flow begin="1740" end="1800" route="routedist_onramp1_flow" vehsPerHour="1800" speed="22.2" type="myVehDist" departPos="random_free" departSpeed="max"/>
		<flow begin="1800" end="1860" route="routedist_onramp1_flow" vehsPerHour="1800" speed="22.2" type="myVehDist" departPos="random_free" departSpeed="max"/>
		<flow begin="1860" end="1920" route="routedist_onramp1_flow" vehsPerHour="1800" speed="22.2" type="myVehDist" departPos="random_free" departSpeed="max"/>
		<flow begin="1920" end="1980" route="routedist_onramp1_flow" vehsPerHour="1800" speed="22.2" type="myVehDist" departPos="random_free" departSpeed="max"/>
		<flow begin="1980" end="2040" route="routedist_onramp1_flow" vehsPerHour="1800" speed="22.2" type="myVehDist" departPos="random_free" departSpeed="max"/>
		<flow begin="2040" end="2100" route="routedist_onramp1_flow" vehsPerHour="1800" speed="22.2" type="myVehDist" departPos="random_free" departSpeed="max"/>
		<flow begin="2100" end="2160" route="routedist_onramp1_flow" vehsPerHour="1800" speed="22.2" type="myVehDist" departPos="random_free" departSpeed="max"/>
		<flow begin="2160" end="2220" route="routedist_onramp1_flow" vehsPerHour="1800" speed="22.2" type="myVehDist" departPos="random_free" departSpeed="max"/>
		<flow begin="2220" end="2280" route="routedist_onramp1_flow" vehsPerHour="1800" speed="22.2" type="myVehDist" departPos="random_free" departSpeed="max"/>
		<flow begin="2280" end="2340" route="routedist_onramp1_flow" vehsPerHour="1800" speed="22.2" type="myVehDist" departPos="random_free" departSpeed="max"/>
		<flow begin="2340" end="2400" route="routedist_onramp1_flow" vehsPerHour="1800" speed="22.2" type="myVehDist" departPos="random_free" departSpeed="max"/>
		<flow begin="2400" end="2460" route="routedist_onramp1_flow" vehsPerHour="1800" speed="22.2" type="myVehDist" departPos="random_free" departSpeed="max"/>
		<flow begin="2460" end="2520" route="routedist_onramp1_flow" vehsPerHour="1800" speed="22.2" type="myVehDist" departPos="random_free" departSpeed="max"/>
		<flow begin="2520" end="2580" route="routedist_onramp1_flow" vehsPerHour="1800" speed="22.2" type="myVehDist" departPos="random_free" departSpeed="max"/>
		<flow begin="2580" end="2640" route="routedist_onramp1_flow" vehsPerHour="1800" speed="22.2" type="myVehDist" departPos="random_free" departSpeed="max"/>
		<flow begin="2640" end="2700" route="routedist_onramp1_flow" vehsPerHour="1800" speed="22.2" type="myVehDist" departPos="random_free" departSpeed="max"/>
		<flow begin="2700" end="2760" route="routedist_onramp1_flow" vehsPerHour="1800" speed="22.2" type="myVehDist" departPos="random_free" departSpeed="max"/>
		<flow begin="2760" end="2820" route="routedist_onramp1_flow" vehsPerHour="1800" speed="22.2" type="myVehDist" departPos="random_free" departSpeed="max"/>
		<flow begin="2820" end="2880" route="routedist_onramp1_flow" vehsPerHour="1800" speed="22.2" type="myVehDist" departPos="random_free" departSpeed="max"/>
		<flow begin="2880" end="2940" route="routedist_onramp1_flow" vehsPerHour="1800" speed="22.2" type="myVehDist" departPos="random_free" departSpeed="max"/>
		<flow begin="2940" end="3000" route="routedist_onramp1_flow" vehsPerHour="1800" speed="22.2" type="myVehDist" departPos="random_free" departSpeed="max"/>
		<flow begin="3000" end="3060" route="routedist_onramp1_flow" vehsPerHour="1800" speed="22.2" type="myVehDist" departPos="random_free" departSpeed="max"/>
		<flow begin="3060" end="3120" route="routedist_onramp1_flow" vehsPerHour="1800" speed="22.2" type="myVehDist" departPos="random_free" departSpeed="max"/>
		<flow begin="3120" end="3180" route="routedist_onramp1_flow" vehsPerHour="1800" speed="22.2" type="myVehDist" departPos="random_free" departSpeed="max"/>
		<flow begin="3180" end="3240" route="routedist_onramp1_flow" vehsPerHour="1800" speed="22.2" type="myVehDist" departPos="random_free" departSpeed="max"/>
		<flow begin="3240" end="3300" route="routedist_onramp1_flow" vehsPerHour="1800" speed="22.2" type="myVehDist" departPos="random_free" departSpeed="max"/>
		<flow begin="3300" end="3360" route="routedist_onramp1_flow" vehsPerHour="1800" speed="22.2" type="myVehDist" departPos="random_free" departSpeed="max"/>
		<flow begin="3360" end="3420" route="routedist_onramp1_flow" vehsPerHour="1800" speed="22.2" type="myVehDist" departPos="random_free" departSpeed="max"/>
		<flow begin="3420" end="3480" route="routedist_onramp1_flow" vehsPerHour="1800" speed="22.2" type="myVehDist" departPos="random_free" departSpeed="max"/>
		<flow begin="3480" end="3540" route="routedist_onramp1_flow" vehsPerHour="1800" speed="22.2" type="myVehDist" departPos="random_free" departSpeed="max"/>
		<flow begin="3540" end="3600" route="routedist_onramp1_flow" vehsPerHour="1800" speed="22.2" type="myVehDist" departPos="random_free" departSpeed="max"/>
		<flow begin="3600" end="3660" route="routedist_onramp1_flow" vehsPerHour="1800" speed="22.2" type="myVehDist" departPos="random_free" departSpeed="max"/>
		<flow begin="3660" end="3720" route="routedist_onramp1_flow" vehsPerHour="1800" speed="22.2" type="myVehDist" departPos="random_free" departSpeed="max"/>
		<flow begin="3720" end="3780" route="routedist_onramp1_flow" vehsPerHour="1800" speed="22.2" type="myVehDist" departPos="random_free" departSpeed="max"/>
		<flow begin="3780" end="3840" route="routedist_onramp1_flow" vehsPerHour="1800" speed="22.2" type="myVehDist" departPos="random_free" departSpeed="max"/>
		<flow begin="3840" end="3900" route="routedist_onramp1_flow" vehsPerHour="1800" speed="22.2" type="myVehDist" departPos="random_free" departSpeed="max"/>
		<flow begin="3900" end="3960" route="routedist_onramp1_flow" vehsPerHour="1800" speed="22.2" type="myVehDist" departPos="random_free" departSpeed="max"/>
		<flow begin="3960" end="4020" route="routedist_onramp1_flow" vehsPerHour="1800" speed="22.2" type="myVehDist" departPos="random_free" departSpeed="max"/>
		<flow begin="4020" end="4080" route="routedist_onramp1_flow" vehsPerHour="1800" speed="22.2" type="myVehDist" departPos="random_free" departSpeed="max"/>
		<flow begin="4080" end="4140" route="routedist_onramp1_flow" vehsPerHour="1800" speed="22.2" type="myVehDist" departPos="random_free" departSpeed="max"/>
		<flow begin="4140" end="4200" route="routedist_onramp1_flow" vehsPerHour="1800" speed="22.2" type="myVehDist" departPos="random_free" departSpeed="max"/>
		<flow begin="4200" end="4260" route="routedist_onramp1_flow" vehsPerHour="1800" speed="22.2" type="myVehDist" departPos="random_free" departSpeed="max"/>
		<flow begin="4260" end="4320" route="routedist_onramp1_flow" vehsPerHour="1800" speed="22.2" type="myVehDist" departPos="random_free" departSpeed="max"/>
		<flow begin="4320" end="4380" route="routedist_onramp1_flow" vehsPerHour="1800" speed="22.2" type="myVehDist" departPos="random_free" departSpeed="max"/>
		<flow begin="4380" end="4440" route="routedist_onramp1_flow" vehsPerHour="1800" speed="22.2" type="myVehDist" departPos="random_free" departSpeed="max"/>
		<flow begin="4440" end="4500" route="routedist_onramp1_flow" vehsPerHour="1800" speed="22.2" type="myVehDist" departPos="random_free" departSpeed="max"/>
		<flow begin="4500" end="4560" route="routedist_onramp1_flow" vehsPerHour="1800" speed="22.2" type="myVehDist" departPos="random_free" departSpeed="max"/>
		<flow begin="4560" end="4620" route="routedist_onramp1_flow" vehsPerHour="1800" speed="22.2" type="myVehDist" departPos="random_free" departSpeed="max"/>
		<flow begin="4620" end="4680" route="routedist_onramp1_flow" vehsPerHour="1800" speed="22.2" type="myVehDist" departPos="random_free" departSpeed="max"/>
		<flow begin="4680" end="4740" route="routedist_onramp1_flow" vehsPerHour="1800" speed="22.2" type="myVehDist" departPos="random_free" departSpeed="max"/>
		<flow begin="4740" end="4800" route="routedist_onramp1_flow" vehsPerHour="1800" speed="22.2" type="myVehDist" departPos="random_free" departSpeed="max"/>
		<flow begin="4800" end="4860" route="routedist_onramp1_flow" vehsPerHour="1800" speed="22.2" type="myVehDist" departPos="random_free" departSpeed="max"/>
		<flow begin="4860" end="4920" route="routedist_onramp1_flow" vehsPerHour="1800" speed="22.2" type="myVehDist" departPos="random_free" departSpeed="max"/>
		<flow begin="4920" end="4980" route="routedist_onramp1_flow" vehsPerHour="1800" speed="22.2" type="myVehDist" departPos="random_free" departSpeed="max"/>
		<flow begin="4980" end="5040" route="routedist_onramp1_flow" vehsPerHour="1800" speed="22.2" type="myVehDist" departPos="random_free" departSpeed="max"/>
		<flow begin="5040" end="5100" route="routedist_onramp1_flow" vehsPerHour="1800" speed="22.2" type="myVehDist" departPos="random_free" departSpeed="max"/>
		<flow begin="5100" end="5160" route="routedist_onramp1_flow" vehsPerHour="1800" speed="22.2" type="myVehDist" departPos="random_free" departSpeed="max"/>
		<flow begin="5160" end="5220" route="routedist_onramp1_flow" vehsPerHour="1800" speed="22.2" type="myVehDist" departPos="random_free" departSpeed="max"/>
		<flow begin="5220" end="5280" route="routedist_onramp1_flow" vehsPerHour="1800" speed="22.2" type="myVehDist" departPos="random_free" departSpeed="max"/>
		<flow begin="5280" end="5340" route="routedist_onramp1_flow" vehsPerHour="1800" speed="22.2" type="myVehDist" departPos="random_free" departSpeed="max"/>
		<flow begin="5340" end="5400" route="routedist_onramp1_flow" vehsPerHour="1800" speed="22.2" type="myVehDist" departPos="random_free" departSpeed="max"/>
	</calibrator>
	
	<calibrator id="cali_onramp2" vTypes="myVehDist" edge="18to11" pos="0.00" jamThreshold="0.5">
	
		<flow begin="0" end="60" route="routedist_onramp2_flow" vehsPerHour="1800" speed="22.2" type="myVehDist" departPos="random_free" departSpeed="max"/>
		<flow begin="60" end="120" route="routedist_onramp2_flow" vehsPerHour="1800" speed="22.2" type="myVehDist" departPos="random_free" departSpeed="max"/>
		<flow begin="120" end="180" route="routedist_onramp2_flow" vehsPerHour="1800" speed="22.2" type="myVehDist" departPos="random_free" departSpeed="max"/>
		<flow begin="180" end="240" route="routedist_onramp2_flow" vehsPerHour="1800" speed="22.2" type="myVehDist" departPos="random_free" departSpeed="max"/>