<?xml version="1.0" encoding="UTF-8"?>

<!-- generated on 2024-02-11 18:26:15 by Eclipse SUMO netedit Version 1.19.0
-->

<additional xmlns:xsi="http://www.w3.org/2001/XMLSchema-instance" xsi:noNamespaceSchemaLocation="http://sumo.dlr.de/xsd/additional_file.xsd">
    <!-- Detectors -->
    <inductionLoop id="e1_0_m_in" lane="v1_0" pos="243.39" period="60.00" file="NUL"/>
    <inductionLoop id="e1_0_m_in_bottl" lane="v106_0" pos="40.22" period="60.00" file="NUL"/>
    <inductionLoop id="e1_1_m_in" lane="v1_1" pos="243.22" period="60.00" file="NUL"/>
    <inductionLoop id="e1_1_m_in_bottl" lane="v106_1" pos="39.88" period="60.00" file="NUL"/>
    <inductionLoop id="e1_2_onr2" lane="18to11_0" pos="493.03" period="60.00" file="NUL"/>
</additional>
